opendss_networks/LV16_12bus/Switches.dss
! new line.Switch_210_OPEN lineCode=ughv_400al_triplex_ug_4w_bundled bus1=B776 bus2=B2325 length=0.00100000000000 units=km switch=y phases=4
new line.Switch_647_CLOSED lineCode=ughv_400al_triplex_ug_4w_bundled bus1=B259 bus2=B516 length=0.00100000000000 units=km switch=y phases=4
new line.Switch_1087_CLOSED lineCode=ughv_400al_triplex_ug_4w_bundled bus1=B2794 bus2=B366 length=0.00100000000000 units=km switch=y phases=4
new line.Switch_3858_CLOSED lineCode=ughv_400al_triplex_ug_4w_bundled bus1=B3372 bus2=B324 length=0.00100000000000 units=km switch=y phases=4
new line.Switch_4391_CLOSED lineCode=ughv_400al_triplex_ug_4w_bundled bus1=B1255 bus2=B752 length=0.00100000000000 units=km switch=y phases=4
